$$$$$$$$$$$$$$$$$$$$$$$$$$$$$$$$$$$$$$$$$$$$$$$$$$$$$$$$$$$$$$$$$$$$$$$$$$$$$$$$
$
$ START OF ENCRYPTION HEADER
$
$ This file was generated by:
$
$ LS-Dyna Material-File encryption script (generated by version 1.0.0)
$
$ user: julian
$ date: 01.05.2023
$
$ END OF ENCRYPTION HEADER
$
$$$$$$$$$$$$$$$$$$$$$$$$$$$$$$$$$$$$$$$$$$$$$$$$$$$$$$$$$$$$$$$$$$$$$$$$$$$$$$$$
$
-----BEGIN PGP MESSAGE-----

hQEOAx24cNFeERoiEAP/WvENSnPGry23ZGxCxCQHFNb1iX+gv2aduIvRf/4q25aR
R1FXZDTlk1LqlvUIxwL2YLc+CpbQkkmNdWdku/JhHZ2B+kuksF6556k4+kDo/7y/
hjulM1lgGz73gF3kbuKB+xZm2sNL9vKRcTisOn4NkF9/aTBsQ6/L2NhZQGSJ/2YD
/3ocsHXB26AcnsYohbz3Egi64WciPVOAOOIgiogGIN9+62decn/nMXhR/L2xlFa1
xZeQniwJq+MmfkNYzTfySKY2djK6C5Ulmy3CxKU9kYMxIasQL9v0vSRvWS0O0xe6
hA7CZVbKbfUPDRgWXNbUclkZgbJ2y8GE8ILp1h512yFNycENDQbFc5Os8xHEZrNv
8p8pRFqIp4FGslWbzQ+7KZ8zTvQFoCyI8RcCiXyho+6NF36cRHqS/FkNSGsJDyVN
xJl/dq50cLWadxmOcjiyqEvSHh0r+GAGK7POZDLUzIvQ4/r5BhcOvqtb6yXl+QBm
IAdFWs69TfgV/XY/6NtwMTbjBBmkJxtI3Mt7J0/VLZgmkc1yyG5yTLIKPNHibxgG
hrNO9XW3iOW81Nd3q5i9qr66XGkT0i+SkQrpJlAQnxoTXNY3horYb4SgfCufCMLQ
/MT5RROTFhp9lz4je1UQOo78oktD/IPoxCtLguGmPJEhdKEcqL1PS8VbvGnzat5K
xAuxBS0Te72/lEWTUsf/eth5bx0RsxrnoyHjRruw6Kb0jyCdBM7fC2izXKx1k19H
h65v//zRg0An4EjkzV3uhPGl5+/9U+QdWRwSLifdDVElt7zt7Gr6xcMTYq1y23yq
2QG2zag7IaRE0p6i6eVEmUU6WpD043HIV8PzoSJKadi5J5eTfCHRFA/Um8SClaPM
wPJVMP62zBzuTU0CZEfSkqlJl6LsrrB//ULCNNc8OZNjOian/+1F+XmIE6+EyUIq
kd3P6QZdlcRBrDBX1jr2tag=
=UwSO
-----END PGP MESSAGE-----
$
*DEFINE_TABLE_TITLE
$# title
Example Table
$#    tbid       sfa      offa
         1
$#             value
                 0.1
                 1.0
                10.0   
$
