$$$$$$$$$$$$$$$$$$$$$$$$$$$$$$$$$$$$$$$$$$$$$$$$$$$$$$$$$$$$$$$$$$$$$$$$$$$$$$$$
$
$ START OF ENCRYPTION HEADER
$
$ This file was generated by:
$
$ LS-Dyna Material-File encryption script (generated by version 0.1.3)
$
$ user: julian
$ date: 01.05.2023
$
$ END OF ENCRYPTION HEADER
$
$$$$$$$$$$$$$$$$$$$$$$$$$$$$$$$$$$$$$$$$$$$$$$$$$$$$$$$$$$$$$$$$$$$$$$$$$$$$$$$$
$
-----BEGIN PGP MESSAGE-----

hQEOAx24cNFeERoiEAP/VhBl3CNni6+UYaVffJJeggdESkby2PK9Mm+XLD0GjNRW
2Ir3jtpwGh6LRmeFsq+1dygJ1241tr+HC6Uq0bKMfGbsCNfowoWi5kvchlNXTXMe
L73t5QsMf8i8bcFQVMI2cOOguPluz9cmpb9otJH48iSrdxUv2lDmoZkQIdmg6AAE
AMPH8nJzLXSmuINXY1EGawyAPBd7H6cJvdOC1l0pEa7noAv7ITdQ6UJkdlJteYEX
IT74+jjE6//9lrRxYHeHTMDprTZvju7wcOJl0jAO7X72zIoMePb11Ok4RwhXjimz
iqH2Nyb01IE9jv5P9CEUTbaZnPyh9qtvQWD80NQ3oWZtyUWwZO0Vf+pFvgqPStbW
xHTK0zHgT1cRdoAMDM8iZJwQQAK4Ky49UpiIt12comOXB1xF7tDvvy2ZSbPr+VeN
j4Fwl64coPg=
=mcBH
-----END PGP MESSAGE-----
