$$$$$$$$$$$$$$$$$$$$$$$$$$$$$$$$$$$$$$$$$$$$$$$$$$$$$$$$$$$$$$$$$$$$$$$$$$$$$$$$
$
$ START OF ENCRYPTION HEADER
$
$ This file was generated by:
$
$ LS-Dyna Material-File encryption script (generated by version 1.0.0)
$
$ user: julian
$ date: 01.05.2023
$
$ END OF ENCRYPTION HEADER
$
$$$$$$$$$$$$$$$$$$$$$$$$$$$$$$$$$$$$$$$$$$$$$$$$$$$$$$$$$$$$$$$$$$$$$$$$$$$$$$$$
$
-----BEGIN PGP MESSAGE-----

hQEOAx24cNFeERoiEAQA28d5w5T5nLtw2sAIMceEh0UZZ1ncFPEvKGKWjfLzuiNN
+xx0KQKZIz81UCmB9t9pzU+DNF4/leOv3yXRTJj+n0Zp66EQgqOYCPrfBrvZQlp8
fOgAZ8Eca9xhoisbYky+bQqjjT+PnG7dqzzyF0R1xrqKbKzucYCmRlrgBwmaNugD
/i6mBUgxJ/nqcUHGVK9hMYZWbr0Duk6o/VmWz1gug0/pQ+GTnmUQpswEkOgdMHwP
cQMdLAF9g92EPqol1PJMt4MidI+KFwm8K5lNr/2+SitC8gIH45SQRdfSJq1VAkEf
leS1bu0C7a22N3RQYIBsSQwMAIbsgEeknMR72U8aDRj9ybOfr5KLLa+XwKcI6OBn
YJHbXxuEKOQhrQaWZahLrzT4Z+jm6GBi8z2SG1isIgx+27dfRiDhFsCxrP4xabG6
natJ/dM/KYbRA00kEGh5pK4qFGW1U/USfZt5G037CY/eJVtHSarQKAAPnupOE5/2
oeQXKdmWZT7qPoTywT+BUk0vkxc01u5ympD1R9w+qecfyfOGGgYbFyE61zkO/oMY
HVNtK7fWtImiQpJum2J+sY3KQolVvQ==
=BJyZ
-----END PGP MESSAGE-----
